Version 4
SHEET 1 1464 744
WIRE 992 160 992 128
WIRE 992 160 688 160
WIRE 688 256 688 160
WIRE 768 256 688 256
WIRE 1136 288 992 288
WIRE 640 320 576 320
WIRE 736 320 640 320
WIRE 768 320 736 320
WIRE 992 400 992 288
WIRE 1264 400 992 400
WIRE 640 544 640 320
WIRE 800 544 768 544
WIRE 976 544 928 544
WIRE 1136 544 1104 544
WIRE 1264 544 1264 400
FLAG 880 368 0
FLAG 576 448 0
FLAG 352 480 0
FLAG 352 240 0
FLAG 992 0 Vref
FLAG 352 352 Vref
FLAG 1136 288 Vout
FLAG 736 320 Vin
SYMBOL cktsym\\resistor 992 64 R0
SYMATTR InstName R1
SYMATTR Value {wc(10K,0.01,1)}
SYMBOL cktsym\\resistor 992 224 R0
SYMATTR InstName R2
SYMATTR Value {wc(10K,0.01,2) }
SYMBOL cktsym\\resistor 704 544 R90
WINDOW 3 -64 -8 VTop 2
WINDOW 0 -12 0 VBottom 2
SYMATTR Value {wc(3010000,0.01,3) }
SYMATTR InstName R3
SYMBOL cktsym\\capacitor 576 384 R0
SYMATTR InstName C1
SYMATTR Value {wc(0.1u,0.05,1)}
SYMBOL cktsym\\vsource 352 176 R0
SYMATTR Value 3.3
SYMATTR InstName Vdd
SYMBOL cktsym\\vsource 352 416 R0
SYMATTR InstName Vref
SYMATTR Value 1.65
SYMBOL cktsym\\vdd_alt 880 208 R0
SYMATTR InstName U2
SYMBOL cktsym\\vdd_alt 352 112 R0
SYMATTR InstName U3
SYMBOL cktsym\\opamprails 864 288 R0
SYMATTR InstName U1
SYMBOL cktsym\\resistor 864 544 R90
WINDOW 3 12 0 VTop 2
WINDOW 0 -12 0 VBottom 2
SYMATTR Value {wc(1000000,0.01,4) }
SYMATTR InstName R4
SYMBOL cktsym\\resistor 1040 544 R90
WINDOW 3 -72 0 VTop 2
WINDOW 0 -12 0 VBottom 2
SYMATTR Value {wc(499k,0.01,5) }
SYMATTR InstName R5
SYMBOL cktsym\\resistor 1200 544 R90
WINDOW 3 12 0 VTop 2
WINDOW 0 -12 0 VBottom 2
SYMATTR Value {wc(40.2k,0.01,6) }
SYMATTR InstName R6
TEXT 288 560 Left 2 !.include engr2420.sub
TEXT 288 592 Left 2 !.tran 0 30 20 0.05 startup
TEXT 288 640 Left 2 !.step param run 0 7 1\n.param numruns=7
TEXT 288 696 Left 2 !.func wc(nom,tol,index) if(run==numruns,nom,if(binary(run,index),nom*(1+tol),nom*(1-tol)))
TEXT 288 728 Left 2 !.func binary(run,index) floor(run/(2**index))-2*floor(run/(2**(index+1)))
